/*--------------------------------*- C++ -*----------------------------------*\
| =========                 |                                                 |
| \\      /  F ield         | OpenFOAM: The Open Source CFD Toolbox           |
|  \\    /   O peration     | Version:  plus-overset                          |
|   \\  /    A nd           | Web:      www.OpenFOAM.com                      |
|    \\/     M anipulation  |                                                 |
\*---------------------------------------------------------------------------*/
FoamFile
{
    version     2.0;
    format      ascii;
    class       extendedFeatureEdgeMesh;
    location    "constant/extendedFeatureEdgeMesh";
    object      cylinder.extendedFeatureEdgeMesh;
}
// * * * * * * * * * * * * * * * * * * * * * * * * * * * * * * * * * * * * * //

// points

1108
(
(-0.23483568 -0.046975363 0.0099999998)
(-0.23483565 0.046975363 0.0099999998)
(-0.21913628 -0.093932025 0.0099999998)
(-0.21913628 0.093932018 0.0099999998)
(-0.203412 -0.12517488 0.0099999998)
(-0.20341198 0.12517488 0.0099999998)
(-0.18787797 -0.14090641 0.0099999998)
(-0.14090642 -0.18787795 0.0099999998)
(-0.12517488 -0.20341198 0.0099999998)
(-0.12517488 0.203412 0.0099999998)
(-0.093932025 -0.21913628 0.0099999998)
(-0.046975367 -0.23483568 0.0099999998)
(-0.046975374 0.2348358 0.0099999998)
(0.046975363 -0.23483565 0.0099999998)
(0.04697537 0.23483577 0.0099999998)
(0.093932025 -0.21913628 0.0099999998)
(0.12517488 -0.20341198 0.0099999998)
(0.12517487 0.20341198 0.0099999998)
(0.20341198 -0.12517487 0.0099999998)
(0.20341198 0.12517487 0.0099999998)
(0.2348358 -0.04697537 0.0099999998)
(0.23483564 0.046975363 0.0099999998)
(-0.23483567 -0.046975363 -0.0099999998)
(-0.23483565 0.046975363 -0.0099999998)
(-0.21913628 -0.093932018 -0.0099999998)
(-0.21913628 0.093932025 -0.0099999998)
(-0.20341198 -0.12517487 -0.0099999998)
(-0.203412 0.12517488 -0.0099999998)
(-0.18787794 -0.14090639 -0.0099999998)
(-0.14090641 -0.18787794 -0.0099999998)
(-0.12517488 -0.20341198 -0.0099999998)
(-0.12517488 0.203412 -0.0099999998)
(-0.093932025 -0.21913628 -0.0099999998)
(-0.046975363 -0.23483567 -0.0099999998)
(-0.04697537 0.2348358 -0.0099999998)
(0.046975363 -0.23483565 -0.0099999998)
(0.04697537 0.23483577 -0.0099999998)
(0.093932025 -0.21913628 -0.0099999998)
(0.12517488 -0.20341198 -0.0099999998)
(0.12517487 0.20341198 -0.0099999998)
(0.203412 -0.12517488 -0.0099999998)
(0.20341198 0.12517487 -0.0099999998)
(0.2348358 -0.04697537 -0.0099999998)
(0.23483564 0.046975363 -0.0099999998)
(-0.24855156 -0.026872292 -0.0099999998)
(-0.24788839 -0.032424495 -0.0099999998)
(-0.24788839 -0.032424495 0.0099999998)
(-0.24855156 -0.026872292 0.0099999998)
(-0.24744943 -0.035619959 -0.0099999998)
(-0.24744943 -0.035619959 0.0099999998)
(-0.24690589 -0.039210662 -0.0099999998)
(-0.24690589 -0.039210662 0.0099999998)
(-0.24626988 -0.043024931 -0.0099999998)
(-0.24626988 -0.043024931 0.0099999998)
(-0.24557486 -0.046829358 -0.0099999998)
(-0.24557486 -0.046829358 0.0099999998)
(-0.24488567 -0.050309159 -0.0099999998)
(-0.24488567 -0.050309159 0.0099999998)
(-0.24368322 -0.055843439 -0.0099999998)
(-0.24368322 -0.055843439 0.0099999998)
(-0.24293548 -0.059011433 -0.0099999998)
(-0.24293548 -0.059011433 0.0099999998)
(-0.24205315 -0.062532172 -0.0099999998)
(-0.24205315 -0.062532172 0.0099999998)
(-0.24114288 -0.065955333 -0.0099999998)
(-0.24114288 -0.065955333 0.0099999998)
(-0.23958193 -0.071417816 -0.0099999998)
(-0.23958193 -0.071417816 0.0099999998)
(-0.23862799 -0.074543171 -0.0099999998)
(-0.23862799 -0.074543171 0.0099999998)
(-0.23759492 -0.077773087 -0.0099999998)
(-0.23759492 -0.077773087 0.0099999998)
(-0.23575585 -0.08318162 -0.0099999998)
(-0.23575585 -0.08318162 0.0099999998)
(-0.2346511 -0.086248815 -0.0099999998)
(-0.2346511 -0.086248815 0.0099999998)
(-0.23346199 -0.089417562 -0.0099999998)
(-0.23346199 -0.089417562 0.0099999998)
(-0.23137501 -0.094686858 -0.0099999998)
(-0.23137501 -0.094686858 0.0099999998)
(-0.2301773 -0.097562328 -0.0099999998)
(-0.2301773 -0.097562328 0.0099999998)
(-0.22792192 -0.10272098 -0.0099999998)
(-0.22792192 -0.10272098 0.0099999998)
(-0.22663294 -0.1055344 -0.0099999998)
(-0.22663294 -0.1055344 0.0099999998)
(-0.22418727 -0.11063485 -0.0099999998)
(-0.22418727 -0.11063485 0.0099999998)
(-0.22280379 -0.11339522 -0.0099999998)
(-0.22280379 -0.11339522 0.0099999998)
(-0.22017805 -0.11841293 -0.0099999998)
(-0.22017805 -0.11841293 0.0099999998)
(-0.21870039 -0.12112034 -0.0099999998)
(-0.21870039 -0.12112034 0.0099999998)
(-0.21590799 -0.12603071 -0.0099999998)
(-0.21590799 -0.12603071 0.0099999998)
(-0.21432801 -0.1286993 -0.0099999998)
(-0.21432801 -0.1286993 0.0099999998)
(-0.21146117 -0.13335732 -0.0099999998)
(-0.21146117 -0.13335732 0.0099999998)
(-0.20845489 -0.13800927 -0.0099999998)
(-0.20845489 -0.13800927 0.0099999998)
(-0.20675351 -0.14054532 -0.0099999998)
(-0.20675351 -0.14054532 0.0099999998)
(-0.20362163 -0.14504562 -0.0099999998)
(-0.20362163 -0.14504562 0.0099999998)
(-0.2003751 -0.14949857 -0.0099999998)
(-0.2003751 -0.14949857 0.0099999998)
(-0.19701004 -0.15390596 -0.0099999998)
(-0.19701004 -0.15390596 0.0099999998)
(-0.19515851 -0.15624709 -0.0099999998)
(-0.19515851 -0.15624709 0.0099999998)
(-0.19168872 -0.160485 -0.0099999998)
(-0.19168872 -0.160485 0.0099999998)
(-0.18810272 -0.16467351 -0.0099999998)
(-0.18810272 -0.16467351 0.0099999998)
(-0.18441996 -0.16878767 -0.0099999998)
(-0.18441996 -0.16878767 0.0099999998)
(-0.18064418 -0.17282268 -0.0099999998)
(-0.18064418 -0.17282268 0.0099999998)
(-0.17677669 -0.17677669 -0.0099999998)
(-0.17677669 -0.17677669 0.0099999998)
(-0.17282268 -0.18064418 -0.0099999998)
(-0.17282268 -0.18064418 0.0099999998)
(-0.16878767 -0.18441996 -0.0099999998)
(-0.16878767 -0.18441996 0.0099999998)
(-0.16467351 -0.18810272 -0.0099999998)
(-0.16467351 -0.18810272 0.0099999998)
(-0.160485 -0.19168872 -0.0099999998)
(-0.160485 -0.19168872 0.0099999998)
(-0.15624709 -0.19515851 -0.0099999998)
(-0.15624709 -0.19515851 0.0099999998)
(-0.15390596 -0.19701004 -0.0099999998)
(-0.15390596 -0.19701004 0.0099999998)
(-0.14949857 -0.2003751 -0.0099999998)
(-0.14949857 -0.2003751 0.0099999998)
(-0.14504562 -0.20362163 -0.0099999998)
(-0.14504562 -0.20362163 0.0099999998)
(-0.14054532 -0.20675351 -0.0099999998)
(-0.14054532 -0.20675351 0.0099999998)
(-0.13800927 -0.20845489 -0.0099999998)
(-0.13800927 -0.20845489 0.0099999998)
(-0.13335732 -0.21146117 -0.0099999998)
(-0.13335732 -0.21146117 0.0099999998)
(-0.1286993 -0.21432801 -0.0099999998)
(-0.1286993 -0.21432801 0.0099999998)
(-0.12603071 -0.21590799 -0.0099999998)
(-0.12603071 -0.21590799 0.0099999998)
(-0.12112034 -0.21870039 -0.0099999998)
(-0.12112034 -0.21870039 0.0099999998)
(-0.11841293 -0.22017805 -0.0099999998)
(-0.11841293 -0.22017805 0.0099999998)
(-0.11339522 -0.22280379 -0.0099999998)
(-0.11339522 -0.22280379 0.0099999998)
(-0.11063485 -0.22418727 -0.0099999998)
(-0.11063485 -0.22418727 0.0099999998)
(-0.1055344 -0.22663294 -0.0099999998)
(-0.1055344 -0.22663294 0.0099999998)
(-0.10272098 -0.22792192 -0.0099999998)
(-0.10272098 -0.22792192 0.0099999998)
(-0.097562328 -0.2301773 -0.0099999998)
(-0.097562328 -0.2301773 0.0099999998)
(-0.094686858 -0.23137501 -0.0099999998)
(-0.094686858 -0.23137501 0.0099999998)
(-0.089417562 -0.23346199 -0.0099999998)
(-0.089417562 -0.23346199 0.0099999998)
(-0.086248815 -0.2346511 -0.0099999998)
(-0.086248815 -0.2346511 0.0099999998)
(-0.08318162 -0.23575585 -0.0099999998)
(-0.08318162 -0.23575585 0.0099999998)
(-0.077773087 -0.23759492 -0.0099999998)
(-0.077773087 -0.23759492 0.0099999998)
(-0.074543171 -0.23862799 -0.0099999998)
(-0.074543171 -0.23862799 0.0099999998)
(-0.071417816 -0.23958193 -0.0099999998)
(-0.071417816 -0.23958193 0.0099999998)
(-0.065955333 -0.24114288 -0.0099999998)
(-0.065955333 -0.24114288 0.0099999998)
(-0.062532172 -0.24205315 -0.0099999998)
(-0.062532172 -0.24205315 0.0099999998)
(-0.059011433 -0.24293548 -0.0099999998)
(-0.059011433 -0.24293548 0.0099999998)
(-0.055843439 -0.24368322 -0.0099999998)
(-0.055843439 -0.24368322 0.0099999998)
(-0.050309159 -0.24488567 -0.0099999998)
(-0.050309159 -0.24488567 0.0099999998)
(-0.046829358 -0.24557486 -0.0099999998)
(-0.046829358 -0.24557486 0.0099999998)
(-0.043024931 -0.24626988 -0.0099999998)
(-0.043024931 -0.24626988 0.0099999998)
(-0.039210662 -0.24690589 -0.0099999998)
(-0.039210662 -0.24690589 0.0099999998)
(-0.035619959 -0.24744943 -0.0099999998)
(-0.035619959 -0.24744943 0.0099999998)
(-0.032424495 -0.24788839 -0.0099999998)
(-0.032424495 -0.24788839 0.0099999998)
(-0.026872292 -0.24855156 -0.0099999998)
(-0.026872292 -0.24855156 0.0099999998)
(-0.023347482 -0.2489074 -0.0099999998)
(-0.023347482 -0.2489074 0.0099999998)
(-0.019503081 -0.2492381 -0.0099999998)
(-0.019503081 -0.2492381 0.0099999998)
(-0.015608928 -0.24951226 -0.0099999998)
(-0.015608928 -0.24951226 0.0099999998)
(-0.011711838 -0.24972552 -0.0099999998)
(-0.011711838 -0.24972552 0.0099999998)
(-0.0078109847 -0.24987794 -0.0099999998)
(-0.0078109847 -0.24987794 0.0099999998)
(-0.0039065541 -0.24996948 -0.0099999998)
(-0.0039065541 -0.24996948 0.0099999998)
(-1.1848749e-18 -0.25 0.0099999998)
(4.5133254e-19 -0.25 -0.0099999998)
(0.0039065541 -0.24996948 0.0099999998)
(0.0039065541 -0.24996948 -0.0099999998)
(0.0078109847 -0.24987794 -0.0099999998)
(0.0078109847 -0.24987794 0.0099999998)
(0.011711838 -0.24972552 -0.0099999998)
(0.011711838 -0.24972552 0.0099999998)
(0.015608928 -0.24951226 -0.0099999998)
(0.015608928 -0.24951226 0.0099999998)
(0.019503081 -0.2492381 -0.0099999998)
(0.019503081 -0.2492381 0.0099999998)
(0.023347482 -0.2489074 -0.0099999998)
(0.023347482 -0.2489074 0.0099999998)
(0.026872292 -0.24855156 -0.0099999998)
(0.026872292 -0.24855156 0.0099999998)
(0.032424495 -0.24788839 -0.0099999998)
(0.032424495 -0.24788839 0.0099999998)
(0.035619959 -0.24744943 -0.0099999998)
(0.035619959 -0.24744943 0.0099999998)
(0.039210662 -0.24690589 -0.0099999998)
(0.039210662 -0.24690589 0.0099999998)
(0.043024931 -0.24626988 -0.0099999998)
(0.043024931 -0.24626988 0.0099999998)
(0.046829358 -0.24557486 -0.0099999998)
(0.046829358 -0.24557486 0.0099999998)
(0.050309159 -0.24488567 -0.0099999998)
(0.050309159 -0.24488567 0.0099999998)
(0.055843439 -0.24368322 -0.0099999998)
(0.055843439 -0.24368322 0.0099999998)
(0.059011433 -0.24293548 -0.0099999998)
(0.059011433 -0.24293548 0.0099999998)
(0.062532172 -0.24205315 -0.0099999998)
(0.062532172 -0.24205315 0.0099999998)
(0.065955333 -0.24114288 -0.0099999998)
(0.065955333 -0.24114288 0.0099999998)
(0.071417816 -0.23958193 -0.0099999998)
(0.071417816 -0.23958193 0.0099999998)
(0.074543171 -0.23862799 -0.0099999998)
(0.074543171 -0.23862799 0.0099999998)
(0.077773087 -0.23759492 -0.0099999998)
(0.077773087 -0.23759492 0.0099999998)
(0.08318162 -0.23575585 -0.0099999998)
(0.08318162 -0.23575585 0.0099999998)
(0.086248815 -0.2346511 -0.0099999998)
(0.086248815 -0.2346511 0.0099999998)
(0.089417562 -0.23346199 -0.0099999998)
(0.089417562 -0.23346199 0.0099999998)
(0.094686858 -0.23137501 -0.0099999998)
(0.094686858 -0.23137501 0.0099999998)
(0.097562328 -0.2301773 -0.0099999998)
(0.097562328 -0.2301773 0.0099999998)
(0.10272098 -0.22792192 -0.0099999998)
(0.10272098 -0.22792192 0.0099999998)
(0.1055344 -0.22663294 -0.0099999998)
(0.1055344 -0.22663294 0.0099999998)
(0.11063485 -0.22418727 -0.0099999998)
(0.11063485 -0.22418727 0.0099999998)
(0.11339522 -0.22280379 -0.0099999998)
(0.11339522 -0.22280379 0.0099999998)
(0.11841293 -0.22017805 -0.0099999998)
(0.11841293 -0.22017805 0.0099999998)
(0.12112034 -0.21870039 -0.0099999998)
(0.12112034 -0.21870039 0.0099999998)
(0.12603071 -0.21590799 -0.0099999998)
(0.12603071 -0.21590799 0.0099999998)
(0.1286993 -0.21432801 -0.0099999998)
(0.1286993 -0.21432801 0.0099999998)
(0.13335732 -0.21146117 -0.0099999998)
(0.13335732 -0.21146117 0.0099999998)
(0.13800927 -0.20845489 -0.0099999998)
(0.13800927 -0.20845489 0.0099999998)
(0.14054532 -0.20675351 -0.0099999998)
(0.14054532 -0.20675351 0.0099999998)
(0.14504562 -0.20362163 -0.0099999998)
(0.14504562 -0.20362163 0.0099999998)
(0.14949857 -0.2003751 -0.0099999998)
(0.14949857 -0.2003751 0.0099999998)
(0.15390596 -0.19701004 -0.0099999998)
(0.15390596 -0.19701004 0.0099999998)
(0.15624709 -0.19515851 -0.0099999998)
(0.15624709 -0.19515851 0.0099999998)
(0.160485 -0.19168872 -0.0099999998)
(0.160485 -0.19168872 0.0099999998)
(0.16467351 -0.18810272 -0.0099999998)
(0.16467351 -0.18810272 0.0099999998)
(0.16878767 -0.18441996 -0.0099999998)
(0.16878767 -0.18441996 0.0099999998)
(0.17282268 -0.18064418 -0.0099999998)
(0.17282268 -0.18064418 0.0099999998)
(0.17677669 -0.17677669 -0.0099999998)
(0.17677669 -0.17677669 0.0099999998)
(0.18064418 -0.17282268 -0.0099999998)
(0.18064418 -0.17282268 0.0099999998)
(0.18441996 -0.16878767 -0.0099999998)
(0.18441996 -0.16878767 0.0099999998)
(0.18810272 -0.16467351 -0.0099999998)
(0.18810272 -0.16467351 0.0099999998)
(0.19168872 -0.160485 -0.0099999998)
(0.19168872 -0.160485 0.0099999998)
(0.19515851 -0.15624709 -0.0099999998)
(0.19515851 -0.15624709 0.0099999998)
(0.19701004 -0.15390596 -0.0099999998)
(0.19701004 -0.15390596 0.0099999998)
(0.2003751 -0.14949857 -0.0099999998)
(0.2003751 -0.14949857 0.0099999998)
(0.20362163 -0.14504562 -0.0099999998)
(0.20362163 -0.14504562 0.0099999998)
(0.20675351 -0.14054532 -0.0099999998)
(0.20675351 -0.14054532 0.0099999998)
(0.20845489 -0.13800927 -0.0099999998)
(0.20845489 -0.13800927 0.0099999998)
(0.21146117 -0.13335732 -0.0099999998)
(0.21146117 -0.13335732 0.0099999998)
(0.21432801 -0.1286993 -0.0099999998)
(0.21432801 -0.1286993 0.0099999998)
(0.21590799 -0.12603071 -0.0099999998)
(0.21590799 -0.12603071 0.0099999998)
(0.21870039 -0.12112034 -0.0099999998)
(0.21870039 -0.12112034 0.0099999998)
(0.22017805 -0.11841293 -0.0099999998)
(0.22017805 -0.11841293 0.0099999998)
(0.22280379 -0.11339522 -0.0099999998)
(0.22280379 -0.11339522 0.0099999998)
(0.22418727 -0.11063485 -0.0099999998)
(0.22418727 -0.11063485 0.0099999998)
(0.22663294 -0.1055344 -0.0099999998)
(0.22663294 -0.1055344 0.0099999998)
(0.22792192 -0.10272098 -0.0099999998)
(0.22792192 -0.10272098 0.0099999998)
(0.2301773 -0.097562328 -0.0099999998)
(0.2301773 -0.097562328 0.0099999998)
(0.23137501 -0.094686858 -0.0099999998)
(0.23137501 -0.094686858 0.0099999998)
(0.23346199 -0.089417562 -0.0099999998)
(0.23346199 -0.089417562 0.0099999998)
(0.2346511 -0.086248815 -0.0099999998)
(0.2346511 -0.086248815 0.0099999998)
(0.23575585 -0.08318162 -0.0099999998)
(0.23575585 -0.08318162 0.0099999998)
(0.23759492 -0.077773087 -0.0099999998)
(0.23759492 -0.077773087 0.0099999998)
(0.23862799 -0.074543171 -0.0099999998)
(0.23862799 -0.074543171 0.0099999998)
(0.23958193 -0.071417816 -0.0099999998)
(0.23958193 -0.071417816 0.0099999998)
(0.24114288 -0.065955333 -0.0099999998)
(0.24114288 -0.065955333 0.0099999998)
(0.24205315 -0.062532172 -0.0099999998)
(0.24205315 -0.062532172 0.0099999998)
(0.24293548 -0.059011433 -0.0099999998)
(0.24293548 -0.059011433 0.0099999998)
(0.24368322 -0.055843439 -0.0099999998)
(0.24368322 -0.055843439 0.0099999998)
(0.24488567 -0.050309159 -0.0099999998)
(0.24488567 -0.050309159 0.0099999998)
(0.24557486 -0.046829358 -0.0099999998)
(0.24557486 -0.046829358 0.0099999998)
(0.24626988 -0.043024931 -0.0099999998)
(0.24626988 -0.043024931 0.0099999998)
(0.24690589 -0.039210662 -0.0099999998)
(0.24690589 -0.039210662 0.0099999998)
(0.24744943 -0.035619959 -0.0099999998)
(0.24744943 -0.035619959 0.0099999998)
(0.24788839 -0.032424495 -0.0099999998)
(0.24788839 -0.032424495 0.0099999998)
(0.24855156 -0.026872292 -0.0099999998)
(0.24855156 -0.026872292 0.0099999998)
(0.2489074 -0.023347482 -0.0099999998)
(0.2489074 -0.023347482 0.0099999998)
(0.2492381 -0.019503081 -0.0099999998)
(0.2492381 -0.019503081 0.0099999998)
(0.24951226 -0.015608928 -0.0099999998)
(0.24951226 -0.015608928 0.0099999998)
(0.24972552 -0.011711838 -0.0099999998)
(0.24972552 -0.011711838 0.0099999998)
(0.24987794 -0.0078109847 -0.0099999998)
(0.24987794 -0.0078109847 0.0099999998)
(0.24996948 -0.0039065541 -0.0099999998)
(0.24996948 -0.0039065541 0.0099999998)
(0.25 -8.5657701e-19 -0.0099999998)
(0.25 1.0586283e-20 0.0099999998)
(0.24996948 0.0039065541 -0.0099999998)
(0.24996948 0.0039065541 0.0099999998)
(0.24987794 0.0078109847 -0.0099999998)
(0.24987794 0.0078109847 0.0099999998)
(0.24972552 0.011711838 -0.0099999998)
(0.24972552 0.011711838 0.0099999998)
(0.24951226 0.015608928 -0.0099999998)
(0.24951226 0.015608928 0.0099999998)
(0.2492381 0.019503081 -0.0099999998)
(0.2492381 0.019503081 0.0099999998)
(0.2489074 0.023347482 -0.0099999998)
(0.2489074 0.023347482 0.0099999998)
(0.24855156 0.026872292 -0.0099999998)
(0.24855156 0.026872292 0.0099999998)
(0.24788839 0.032424495 -0.0099999998)
(0.24788839 0.032424495 0.0099999998)
(0.24744943 0.035619959 -0.0099999998)
(0.24744943 0.035619959 0.0099999998)
(0.24690589 0.039210662 -0.0099999998)
(0.24690589 0.039210662 0.0099999998)
(0.24626988 0.043024931 -0.0099999998)
(0.24626988 0.043024931 0.0099999998)
(0.24557486 0.046829358 -0.0099999998)
(0.24557486 0.046829358 0.0099999998)
(0.24488567 0.050309159 -0.0099999998)
(0.24488567 0.050309159 0.0099999998)
(0.24368322 0.055843439 -0.0099999998)
(0.24368322 0.055843439 0.0099999998)
(0.24293548 0.059011433 -0.0099999998)
(0.24293548 0.059011433 0.0099999998)
(0.24205315 0.062532172 -0.0099999998)
(0.24205315 0.062532172 0.0099999998)
(0.24114288 0.065955333 -0.0099999998)
(0.24114288 0.065955333 0.0099999998)
(0.23958193 0.071417816 -0.0099999998)
(0.23958193 0.071417816 0.0099999998)
(0.23862799 0.074543171 -0.0099999998)
(0.23862799 0.074543171 0.0099999998)
(0.23759492 0.077773087 -0.0099999998)
(0.23759492 0.077773087 0.0099999998)
(0.23575585 0.08318162 -0.0099999998)
(0.23575585 0.08318162 0.0099999998)
(0.2346511 0.086248815 -0.0099999998)
(0.2346511 0.086248815 0.0099999998)
(0.23346199 0.089417562 -0.0099999998)
(0.23346199 0.089417562 0.0099999998)
(0.23137501 0.094686858 -0.0099999998)
(0.23137501 0.094686858 0.0099999998)
(0.2301773 0.097562328 -0.0099999998)
(0.2301773 0.097562328 0.0099999998)
(0.22792192 0.10272098 -0.0099999998)
(0.22792192 0.10272098 0.0099999998)
(0.22663294 0.1055344 -0.0099999998)
(0.22663294 0.1055344 0.0099999998)
(0.22418727 0.11063485 -0.0099999998)
(0.22418727 0.11063485 0.0099999998)
(0.22280379 0.11339522 -0.0099999998)
(0.22280379 0.11339522 0.0099999998)
(0.22017805 0.11841293 -0.0099999998)
(0.22017805 0.11841293 0.0099999998)
(0.21870039 0.12112034 -0.0099999998)
(0.21870039 0.12112034 0.0099999998)
(0.21590799 0.12603071 -0.0099999998)
(0.21590799 0.12603071 0.0099999998)
(0.21432801 0.1286993 -0.0099999998)
(0.21432801 0.1286993 0.0099999998)
(0.21146117 0.13335732 -0.0099999998)
(0.21146117 0.13335732 0.0099999998)
(0.20845489 0.13800927 -0.0099999998)
(0.20845489 0.13800927 0.0099999998)
(0.20675351 0.14054532 -0.0099999998)
(0.20675351 0.14054532 0.0099999998)
(0.20362163 0.14504562 -0.0099999998)
(0.20362163 0.14504562 0.0099999998)
(0.2003751 0.14949857 -0.0099999998)
(0.2003751 0.14949857 0.0099999998)
(0.19701004 0.15390596 -0.0099999998)
(0.19701004 0.15390596 0.0099999998)
(0.19515851 0.15624709 -0.0099999998)
(0.19515851 0.15624709 0.0099999998)
(0.19168872 0.160485 -0.0099999998)
(0.19168872 0.160485 0.0099999998)
(0.18810272 0.16467351 -0.0099999998)
(0.18810272 0.16467351 0.0099999998)
(0.18441996 0.16878767 -0.0099999998)
(0.18441996 0.16878767 0.0099999998)
(0.18064418 0.17282268 -0.0099999998)
(0.18064418 0.17282268 0.0099999998)
(0.17677669 0.17677669 -0.0099999998)
(0.17677669 0.17677669 0.0099999998)
(0.17282268 0.18064418 -0.0099999998)
(0.17282268 0.18064418 0.0099999998)
(0.16878767 0.18441996 -0.0099999998)
(0.16878767 0.18441996 0.0099999998)
(0.16467351 0.18810272 -0.0099999998)
(0.16467351 0.18810272 0.0099999998)
(0.160485 0.19168872 -0.0099999998)
(0.160485 0.19168872 0.0099999998)
(0.15624709 0.19515851 -0.0099999998)
(0.15624709 0.19515851 0.0099999998)
(0.15390596 0.19701004 -0.0099999998)
(0.15390596 0.19701004 0.0099999998)
(0.14949857 0.2003751 -0.0099999998)
(0.14949857 0.2003751 0.0099999998)
(0.14504562 0.20362163 -0.0099999998)
(0.14504562 0.20362163 0.0099999998)
(0.14054532 0.20675351 -0.0099999998)
(0.14054532 0.20675351 0.0099999998)
(0.13800927 0.20845489 -0.0099999998)
(0.13800927 0.20845489 0.0099999998)
(0.13335732 0.21146117 -0.0099999998)
(0.13335732 0.21146117 0.0099999998)
(0.1286993 0.21432801 -0.0099999998)
(0.1286993 0.21432801 0.0099999998)
(0.12603071 0.21590799 -0.0099999998)
(0.12603071 0.21590799 0.0099999998)
(0.12112034 0.21870039 -0.0099999998)
(0.12112034 0.21870039 0.0099999998)
(0.11841293 0.22017805 -0.0099999998)
(0.11841293 0.22017805 0.0099999998)
(0.11339522 0.22280379 -0.0099999998)
(0.11339522 0.22280379 0.0099999998)
(0.11063485 0.22418727 -0.0099999998)
(0.11063485 0.22418727 0.0099999998)
(0.1055344 0.22663294 -0.0099999998)
(0.1055344 0.22663294 0.0099999998)
(0.10272098 0.22792192 -0.0099999998)
(0.10272098 0.22792192 0.0099999998)
(0.097562328 0.2301773 -0.0099999998)
(0.097562328 0.2301773 0.0099999998)
(0.094686858 0.23137501 -0.0099999998)
(0.094686858 0.23137501 0.0099999998)
(0.089417562 0.23346199 -0.0099999998)
(0.089417562 0.23346199 0.0099999998)
(0.086248815 0.2346511 -0.0099999998)
(0.086248815 0.2346511 0.0099999998)
(0.08318162 0.23575585 -0.0099999998)
(0.08318162 0.23575585 0.0099999998)
(0.077773087 0.23759492 -0.0099999998)
(0.077773087 0.23759492 0.0099999998)
(0.074543171 0.23862799 -0.0099999998)
(0.074543171 0.23862799 0.0099999998)
(0.071417816 0.23958193 -0.0099999998)
(0.071417816 0.23958193 0.0099999998)
(0.065955333 0.24114288 -0.0099999998)
(0.065955333 0.24114288 0.0099999998)
(0.062532172 0.24205315 -0.0099999998)
(0.062532172 0.24205315 0.0099999998)
(0.059011433 0.24293548 -0.0099999998)
(0.059011433 0.24293548 0.0099999998)
(0.055843439 0.24368322 -0.0099999998)
(0.055843439 0.24368322 0.0099999998)
(0.050309159 0.24488567 -0.0099999998)
(0.050309159 0.24488567 0.0099999998)
(0.046829358 0.24557486 -0.0099999998)
(0.046829358 0.24557486 0.0099999998)
(0.043024931 0.24626988 -0.0099999998)
(0.043024931 0.24626988 0.0099999998)
(0.039210662 0.24690589 -0.0099999998)
(0.039210662 0.24690589 0.0099999998)
(0.035619959 0.24744943 -0.0099999998)
(0.035619959 0.24744943 0.0099999998)
(0.032424495 0.24788839 -0.0099999998)
(0.032424495 0.24788839 0.0099999998)
(0.026872292 0.24855156 -0.0099999998)
(0.026872292 0.24855156 0.0099999998)
(0.023347482 0.2489074 -0.0099999998)
(0.023347482 0.2489074 0.0099999998)
(0.019503081 0.2492381 -0.0099999998)
(0.019503081 0.2492381 0.0099999998)
(0.015608928 0.24951226 -0.0099999998)
(0.015608928 0.24951226 0.0099999998)
(0.011711838 0.24972552 -0.0099999998)
(0.011711838 0.24972552 0.0099999998)
(0.0078109847 0.24987794 -0.0099999998)
(0.0078109847 0.24987794 0.0099999998)
(0.0039065541 0.24996948 -0.0099999998)
(0.0039065541 0.24996948 0.0099999998)
(-6.2649393e-19 0.25 -0.0099999998)
(-7.2354688e-19 0.25 0.0099999998)
(-0.0039065541 0.24996948 -0.0099999998)
(-0.0039065541 0.24996948 0.0099999998)
(-0.0078109847 0.24987794 -0.0099999998)
(-0.0078109847 0.24987794 0.0099999998)
(-0.011711838 0.24972552 -0.0099999998)
(-0.011711838 0.24972552 0.0099999998)
(-0.015608928 0.24951226 -0.0099999998)
(-0.015608928 0.24951226 0.0099999998)
(-0.019503081 0.2492381 -0.0099999998)
(-0.019503081 0.2492381 0.0099999998)
(-0.023347482 0.2489074 -0.0099999998)
(-0.023347482 0.2489074 0.0099999998)
(-0.026872292 0.24855156 -0.0099999998)
(-0.026872292 0.24855156 0.0099999998)
(-0.032424495 0.24788839 -0.0099999998)
(-0.032424495 0.24788839 0.0099999998)
(-0.035619959 0.24744943 -0.0099999998)
(-0.035619959 0.24744943 0.0099999998)
(-0.039210662 0.24690589 -0.0099999998)
(-0.039210662 0.24690589 0.0099999998)
(-0.043024931 0.24626988 -0.0099999998)
(-0.043024931 0.24626988 0.0099999998)
(-0.046829358 0.24557486 -0.0099999998)
(-0.046829358 0.24557486 0.0099999998)
(-0.050309159 0.24488567 -0.0099999998)
(-0.050309159 0.24488567 0.0099999998)
(-0.055843439 0.24368322 -0.0099999998)
(-0.055843439 0.24368322 0.0099999998)
(-0.059011433 0.24293548 -0.0099999998)
(-0.059011433 0.24293548 0.0099999998)
(-0.062532172 0.24205315 -0.0099999998)
(-0.062532172 0.24205315 0.0099999998)
(-0.065955333 0.24114288 -0.0099999998)
(-0.065955333 0.24114288 0.0099999998)
(-0.071417816 0.23958193 -0.0099999998)
(-0.071417816 0.23958193 0.0099999998)
(-0.074543171 0.23862799 -0.0099999998)
(-0.074543171 0.23862799 0.0099999998)
(-0.077773087 0.23759492 -0.0099999998)
(-0.077773087 0.23759492 0.0099999998)
(-0.08318162 0.23575585 -0.0099999998)
(-0.08318162 0.23575585 0.0099999998)
(-0.086248815 0.2346511 -0.0099999998)
(-0.086248815 0.2346511 0.0099999998)
(-0.089417562 0.23346199 -0.0099999998)
(-0.089417562 0.23346199 0.0099999998)
(-0.094686858 0.23137501 -0.0099999998)
(-0.094686858 0.23137501 0.0099999998)
(-0.097562328 0.2301773 -0.0099999998)
(-0.097562328 0.2301773 0.0099999998)
(-0.10272098 0.22792192 -0.0099999998)
(-0.10272098 0.22792192 0.0099999998)
(-0.1055344 0.22663294 -0.0099999998)
(-0.1055344 0.22663294 0.0099999998)
(-0.11063485 0.22418727 -0.0099999998)
(-0.11063485 0.22418727 0.0099999998)
(-0.11339522 0.22280379 -0.0099999998)
(-0.11339522 0.22280379 0.0099999998)
(-0.11841293 0.22017805 -0.0099999998)
(-0.11841293 0.22017805 0.0099999998)
(-0.12112034 0.21870039 -0.0099999998)
(-0.12112034 0.21870039 0.0099999998)
(-0.12603071 0.21590799 -0.0099999998)
(-0.12603071 0.21590799 0.0099999998)
(-0.1286993 0.21432801 -0.0099999998)
(-0.1286993 0.21432801 0.0099999998)
(-0.13335732 0.21146117 -0.0099999998)
(-0.13335732 0.21146117 0.0099999998)
(-0.13800927 0.20845489 -0.0099999998)
(-0.13800927 0.20845489 0.0099999998)
(-0.14054532 0.20675351 -0.0099999998)
(-0.14054532 0.20675351 0.0099999998)
(-0.14504562 0.20362163 -0.0099999998)
(-0.14504562 0.20362163 0.0099999998)
(-0.14949857 0.2003751 -0.0099999998)
(-0.14949857 0.2003751 0.0099999998)
(-0.15390596 0.19701004 -0.0099999998)
(-0.15390596 0.19701004 0.0099999998)
(-0.15624709 0.19515851 -0.0099999998)
(-0.15624709 0.19515851 0.0099999998)
(-0.160485 0.19168872 -0.0099999998)
(-0.160485 0.19168872 0.0099999998)
(-0.16467351 0.18810272 -0.0099999998)
(-0.16467351 0.18810272 0.0099999998)
(-0.16878767 0.18441996 -0.0099999998)
(-0.16878767 0.18441996 0.0099999998)
(-0.17282268 0.18064418 -0.0099999998)
(-0.17282268 0.18064418 0.0099999998)
(-0.17677669 0.17677669 -0.0099999998)
(-0.17677669 0.17677669 0.0099999998)
(-0.18064418 0.17282268 -0.0099999998)
(-0.18064418 0.17282268 0.0099999998)
(-0.18441996 0.16878767 -0.0099999998)
(-0.18441996 0.16878767 0.0099999998)
(-0.18810272 0.16467351 -0.0099999998)
(-0.18810272 0.16467351 0.0099999998)
(-0.19168872 0.160485 -0.0099999998)
(-0.19168872 0.160485 0.0099999998)
(-0.19515851 0.15624709 -0.0099999998)
(-0.19515851 0.15624709 0.0099999998)
(-0.19701004 0.15390596 -0.0099999998)
(-0.19701004 0.15390596 0.0099999998)
(-0.2003751 0.14949857 -0.0099999998)
(-0.2003751 0.14949857 0.0099999998)
(-0.20362163 0.14504562 -0.0099999998)
(-0.20362163 0.14504562 0.0099999998)
(-0.20675351 0.14054532 -0.0099999998)
(-0.20675351 0.14054532 0.0099999998)
(-0.20845489 0.13800927 -0.0099999998)
(-0.20845489 0.13800927 0.0099999998)
(-0.21146117 0.13335732 -0.0099999998)
(-0.21146117 0.13335732 0.0099999998)
(-0.21432801 0.1286993 -0.0099999998)
(-0.21432801 0.1286993 0.0099999998)
(-0.21590799 0.12603071 -0.0099999998)
(-0.21590799 0.12603071 0.0099999998)
(-0.21870039 0.12112034 -0.0099999998)
(-0.21870039 0.12112034 0.0099999998)
(-0.22017805 0.11841293 -0.0099999998)
(-0.22017805 0.11841293 0.0099999998)
(-0.22280379 0.11339522 -0.0099999998)
(-0.22280379 0.11339522 0.0099999998)
(-0.22418727 0.11063485 -0.0099999998)
(-0.22418727 0.11063485 0.0099999998)
(-0.22663294 0.1055344 -0.0099999998)
(-0.22663294 0.1055344 0.0099999998)
(-0.22792192 0.10272098 -0.0099999998)
(-0.22792192 0.10272098 0.0099999998)
(-0.2301773 0.097562328 -0.0099999998)
(-0.2301773 0.097562328 0.0099999998)
(-0.23137501 0.094686858 -0.0099999998)
(-0.23137501 0.094686858 0.0099999998)
(-0.23346199 0.089417562 -0.0099999998)
(-0.23346199 0.089417562 0.0099999998)
(-0.2346511 0.086248815 -0.0099999998)
(-0.2346511 0.086248815 0.0099999998)
(-0.23575585 0.08318162 -0.0099999998)
(-0.23575585 0.08318162 0.0099999998)
(-0.23759492 0.077773087 -0.0099999998)
(-0.23759492 0.077773087 0.0099999998)
(-0.23862799 0.074543171 -0.0099999998)
(-0.23862799 0.074543171 0.0099999998)
(-0.23958193 0.071417816 -0.0099999998)
(-0.23958193 0.071417816 0.0099999998)
(-0.24114288 0.065955333 -0.0099999998)
(-0.24114288 0.065955333 0.0099999998)
(-0.24205315 0.062532172 -0.0099999998)
(-0.24205315 0.062532172 0.0099999998)
(-0.24293548 0.059011433 -0.0099999998)
(-0.24293548 0.059011433 0.0099999998)
(-0.24368322 0.055843439 -0.0099999998)
(-0.24368322 0.055843439 0.0099999998)
(-0.24488567 0.050309159 -0.0099999998)
(-0.24488567 0.050309159 0.0099999998)
(-0.24557486 0.046829358 -0.0099999998)
(-0.24557486 0.046829358 0.0099999998)
(-0.24626988 0.043024931 -0.0099999998)
(-0.24626988 0.043024931 0.0099999998)
(-0.24690589 0.039210662 -0.0099999998)
(-0.24690589 0.039210662 0.0099999998)
(-0.24744943 0.035619959 -0.0099999998)
(-0.24744943 0.035619959 0.0099999998)
(-0.24788839 0.032424495 -0.0099999998)
(-0.24788839 0.032424495 0.0099999998)
(-0.24855156 0.026872292 -0.0099999998)
(-0.24855156 0.026872292 0.0099999998)
(-0.2489074 0.023347482 -0.0099999998)
(-0.2489074 0.023347482 0.0099999998)
(-0.2492381 0.019503081 -0.0099999998)
(-0.2492381 0.019503081 0.0099999998)
(-0.24951226 0.015608928 -0.0099999998)
(-0.24951226 0.015608928 0.0099999998)
(-0.24972552 0.011711838 -0.0099999998)
(-0.24972552 0.011711838 0.0099999998)
(-0.24987794 0.0078109847 -0.0099999998)
(-0.24987794 0.0078109847 0.0099999998)
(-0.24996948 0.0039065541 -0.0099999998)
(-0.24996948 0.0039065541 0.0099999998)