/*--------------------------------*- C++ -*----------------------------------*\
| =========                 |                                                 |
| \\      /  F ield         | OpenFOAM: The Open Source CFD Toolbox           |
|  \\    /   O peration     | Version:  dev                                   |
|   \\  /    A nd           | Web:      www.OpenFOAM.org                      |
|    \\/     M anipulation  |                                                 |
\*---------------------------------------------------------------------------*/
FoamFile
{
    version     2.0;
    format      ascii;
    class       dictionary;
    object      dynamicMeshDict;
}
// * * * * * * * * * * * * * * * * * * * * * * * * * * * * * * * * * * * * * //

dynamicFvMesh       dynamicOversetFvMesh;

dynamicOversetFvMeshCoeffs
{
 //   layerRelax 0.3;
   overlapTolerance  0.01;
 
}

//motionSolverLibs ( "libfvMotionSolvers.so" );
//
//solver          displacementLaplacian;
//
//displacementLaplacianCoeffs
//{
//    diffusivity     uniform 1;
//}


solver          multiSolidBodyMotionSolver;

multiSolidBodyMotionSolverCoeffs
{
    movingZone
    {
        /*
        solidBodyMotionFunction rotatingMotion;
        rotatingMotionCoeffs
        {
            origin      (0.005 0.005 0.005);
            axis        (0 0 1);
            omega       100.0;
        }
        */

		solidBodyMotionFunction oscillatingRotatingMotion;
		oscillatingRotatingMotionCoeffs
		{
			origin          (0 0 0);
			omega           1.88495559;  // rad/s equivalent to 0.3 Hz 
			amplitude       (0 0 55); // 55 degrees max tilt
		}
         
    }
}

// ************************************************************************* //
