/*--------------------------------*- C++ -*----------------------------------*\
| =========                 |                                                 |
| \\      /  F ield         | OpenFOAM: The Open Source CFD Toolbox           |
|  \\    /   O peration     | Version:  plus-overset                          |
|   \\  /    A nd           | Web:      www.OpenFOAM.com                      |
|    \\/     M anipulation  |                                                 |
\*---------------------------------------------------------------------------*/
FoamFile
{
    version     2.0;
    format      ascii;
    class       featureEdgeMesh;
    location    "constant/triSurface";
    object      geom.eMesh;
}
// * * * * * * * * * * * * * * * * * * * * * * * * * * * * * * * * * * * * * //


// points:

1360
(
(0.098899998 0.11911252 0.010000001)
(0.109342 0.11684905 0.010000001)
(0.111158 0.11645541 -0.010000001)
(0.098899998 0.11911252 -0.010000001)
(0.11270496 0.11612008 0.010000001)
(0.1216 0.11419194 0.010000001)
(0.1216 0.11419194 -0.010000001)
(0.12207963 0.11412147 0.010000001)
(0.12216304 0.11410923 -0.010000001)
(0.1222341 0.11409879 0.010000001)
(0.12264267 0.11403877 0.010000001)
(0.12264267 0.11403877 -0.010000001)
(0.12321335 0.11402449 0.010000001)
(0.1233126 0.11402201 -0.010000001)
(0.12388327 0.11400773 0.010000001)
(0.12427714 0.11404153 0.010000001)
(0.12434564 0.11404741 -0.010000001)
(0.12388327 0.11400773 -0.010000001)
(0.12473951 0.11408121 0.010000001)
(0.12521534 0.11417089 0.010000001)
(0.12529808 0.11418648 -0.010000001)
(0.12473951 0.11408121 -0.010000001)
(0.12577391 0.11427615 0.010000001)
(0.12623648 0.11441777 0.010000001)
(0.12631693 0.1144424 -0.010000001)
(0.12577391 0.11427615 -0.010000001)
(0.12677951 0.11458401 0.010000001)
(0.12710111 0.11471707 0.010000001)
(0.12715703 0.11474022 -0.010000001)
(0.12677951 0.11458401 -0.010000001)
(0.12747864 0.11487328 0.010000001)
(0.12781219 0.11504483 0.010000001)
(0.1278702 0.11507467 -0.010000001)
(0.12747864 0.11487328 -0.010000001)
(0.12820375 0.11524623 0.010000001)
(0.12852496 0.11544825 0.010000001)
(0.12858082 0.11548338 -0.010000001)
(0.12820375 0.11524623 -0.010000001)
(0.12890205 0.1156854 0.010000001)
(0.12916185 0.11587963 0.010000001)
(0.12920703 0.11591341 -0.010000001)
(0.12890205 0.1156854 -0.010000001)
(0.12946683 0.11610764 0.010000001)
(0.12974654 0.11635382 0.010000001)
(0.12979518 0.11639664 -0.010000001)
(0.12946683 0.11610764 -0.010000001)
(0.13007489 0.11664283 0.010000001)
(0.13033219 0.11691146 0.010000001)
(0.13037694 0.11695819 -0.010000001)
(0.13007489 0.11664283 -0.010000001)
(0.13063423 0.11722682 0.010000001)
(0.13086715 0.11751556 0.010000001)
(0.13090765 0.11756577 -0.010000001)
(0.13063423 0.11722682 -0.010000001)
(0.13114057 0.11785451 0.010000001)
(0.13134257 0.11815288 0.010000001)
(0.1313777 0.11820477 -0.010000001)
(0.13114057 0.11785451 -0.010000001)
(0.13157968 0.11850314 0.010000001)
(0.1318111 0.11892828 0.010000001)
(0.13185135 0.11900222 -0.010000001)
(0.13157968 0.11850314 -0.010000001)
(0.13208275 0.11942736 0.010000001)
(0.13226579 0.1198757 0.010000001)
(0.13229762 0.11995367 -0.010000001)
(0.13208275 0.11942736 -0.010000001)
(0.13248067 0.120402 0.010000001)
(0.13259067 0.12077356 0.010000001)
(0.1326098 0.12083818 -0.010000001)
(0.13248067 0.120402 -0.010000001)
(0.1327198 0.12120974 0.010000001)
(0.13282201 0.12178104 0.010000001)
(0.13283978 0.1218804 -0.010000001)
(0.1327198 0.12120974 -0.010000001)
(0.13294198 0.12245169 0.010000001)
(0.13296866 0.12293392 0.010000001)
(0.13297331 0.12301778 -0.010000001)
(0.13294198 0.12245169 -0.010000001)
(0.1329914 0.1233447 0.010000001)
(0.133 0.1235 -0.010000001)
(0.133 0.1235 0.010000001)
(0.13290907 0.1222677 0.010000001)
(0.13268438 0.12109008 0.010000001)
(0.13242172 0.12025761 0.010000001)
(0.13200822 0.11929044 0.010000001)
(0.13151464 0.11840704 0.010000001)
(0.13106556 0.11776152 0.010000001)
(0.13055137 0.11714031 0.010000001)
(0.12998481 0.11656354 0.010000001)
(0.12938316 0.11604509 0.010000001)
(0.12879859 0.11562034 0.010000001)
(0.12809633 0.11519098 0.010000001)
(0.12737507 0.11483042 0.010000001)
(0.12663053 0.1145384 0.010000001)
(0.12562066 0.11424727 0.010000001)
(0.12461266 0.11407033 0.010000001)
(0.12369948 0.11401233 0.010000001)
(0.098899998 0.12788749 0.010000001)
(0.098731823 0.12784162 0.010000001)
(0.098702572 0.12783365 -0.010000001)
(0.098899998 0.12788749 -0.010000001)
(0.098677658 0.12782685 0.010000001)
(0.09853439 0.12778778 0.010000001)
(0.09853439 0.12778778 -0.010000001)
(0.09837126 0.12772818 0.010000001)
(0.098342896 0.12771782 -0.010000001)
(0.098179765 0.12765822 0.010000001)
(0.09797024 0.12755741 0.010000001)
(0.097933799 0.12753987 -0.010000001)
(0.098179765 0.12765822 -0.010000001)
(0.097724274 0.12743907 0.010000001)
(0.097565539 0.12734182 0.010000001)
(0.097537935 0.12732491 -0.010000001)
(0.097724274 0.12743907 -0.010000001)
(0.0973792 0.12722768 0.010000001)
(0.097159706 0.12705667 0.010000001)
(0.097121537 0.12702693 -0.010000001)
(0.0973792 0.12722768 -0.010000001)
(0.096902043 0.12685592 0.010000001)
(0.096777044 0.12673442 0.010000001)
(0.096755303 0.12671329 -0.010000001)
(0.096902043 0.12685592 -0.010000001)
(0.096630298 0.12659177 0.010000001)
(0.096516088 0.12646033 0.010000001)
(0.096496232 0.12643747 -0.010000001)
(0.096630298 0.12659177 -0.010000001)
(0.096382022 0.12630603 0.010000001)
(0.09623722 0.12609991 0.010000001)
(0.096212029 0.12606406 -0.010000001)
(0.096382022 0.12630603 -0.010000001)
(0.096067227 0.12585793 0.010000001)
(0.095993325 0.12572744 0.010000001)
(0.095980473 0.12570475 -0.010000001)
(0.096067227 0.12585793 -0.010000001)
(0.095906578 0.12557426 0.010000001)
(0.095856786 0.12547158 0.010000001)
(0.095848128 0.12545371 -0.010000001)
(0.095906578 0.12557426 -0.010000001)
(0.095798336 0.12535103 0.010000001)
(0.095751166 0.12523766 0.010000001)
(0.095742963 0.12521794 -0.010000001)
(0.095798336 0.12535103 -0.010000001)
(0.095695794 0.12510456 0.010000001)
(0.095642321 0.12494536 0.010000001)
(0.095633022 0.12491768 -0.010000001)
(0.095695794 0.12510456 -0.010000001)
(0.095579557 0.12475848 0.010000001)
(0.095517017 0.12446702 0.010000001)
(0.095506139 0.12441634 -0.010000001)
(0.095579557 0.12475848 -0.010000001)
(0.095443599 0.12412488 0.010000001)
(0.095426925 0.12395567 0.010000001)
(0.095424019 0.12392624 -0.010000001)
(0.095443599 0.12412488 -0.010000001)
(0.095407344 0.12375703 0.010000001)
(0.095403969 0.12363879 0.010000001)
(0.095403381 0.12361824 -0.010000001)
(0.095407344 0.12375703 -0.010000001)
(0.095399998 0.1235 0.010000001)
(0.095403381 0.12338176 0.010000001)
(0.095403969 0.12336121 -0.010000001)
(0.095399998 0.1235 -0.010000001)
(0.095407344 0.12324297 0.010000001)
(0.095424019 0.12307376 0.010000001)
(0.095426925 0.12304433 -0.010000001)
(0.095407344 0.12324297 -0.010000001)
(0.095443599 0.12287512 0.010000001)
(0.095506139 0.12258366 0.010000001)
(0.095517017 0.12253298 -0.010000001)
(0.095443599 0.12287512 -0.010000001)
(0.095579557 0.12224152 0.010000001)
(0.095633022 0.12208232 0.010000001)
(0.095642321 0.12205464 -0.010000001)
(0.095579557 0.12224152 -0.010000001)
(0.095695794 0.12189543 0.010000001)
(0.095742963 0.12178206 0.010000001)
(0.095751166 0.12176234 -0.010000001)
(0.095695794 0.12189543 -0.010000001)
(0.095798336 0.12164897 0.010000001)
(0.095848128 0.12154628 0.010000001)
(0.095856786 0.12152842 -0.010000001)
(0.095798336 0.12164897 -0.010000001)
(0.095906578 0.12142574 0.010000001)
(0.095980473 0.12129525 0.010000001)
(0.095993325 0.12127256 -0.010000001)
(0.095906578 0.12142574 -0.010000001)
(0.096067227 0.12114207 0.010000001)
(0.096212029 0.12093594 0.010000001)
(0.09623722 0.12090009 -0.010000001)
(0.096067227 0.12114207 -0.010000001)
(0.096382022 0.12069397 0.010000001)
(0.096496232 0.12056252 0.010000001)
(0.096516088 0.12053967 -0.010000001)
(0.096382022 0.12069397 -0.010000001)
(0.096630298 0.12040823 0.010000001)
(0.096755303 0.12028672 0.010000001)
(0.096777044 0.12026558 -0.010000001)
(0.096630298 0.12040823 -0.010000001)
(0.096902043 0.12014407 0.010000001)
(0.097121537 0.11997307 0.010000001)
(0.097159706 0.11994333 -0.010000001)
(0.096902043 0.12014407 -0.010000001)
(0.0973792 0.11977232 0.010000001)
(0.097537935 0.11967508 0.010000001)
(0.097565539 0.11965818 -0.010000001)
(0.0973792 0.11977232 -0.010000001)
(0.097724274 0.11956093 0.010000001)
(0.097933799 0.11946013 0.010000001)
(0.09797024 0.11944259 -0.010000001)
(0.097724274 0.11956093 -0.010000001)
(0.098179765 0.11934178 0.010000001)
(0.098342896 0.11928218 0.010000001)
(0.09837126 0.11927181 -0.010000001)
(0.098179765 0.11934178 -0.010000001)
(0.09853439 0.11921222 0.010000001)
(0.098702572 0.11916635 0.010000001)
(0.098731823 0.11915838 -0.010000001)
(0.09853439 0.11921222 -0.010000001)
(0.098845832 0.11912729 0.010000001)
(0.098481856 0.11923141 0.010000001)
(0.098112285 0.11937425 0.010000001)
(0.097673148 0.11959226 0.010000001)
(0.097308509 0.1198274 0.010000001)
(0.096861787 0.12018321 0.010000001)
(0.096593514 0.12045056 0.010000001)
(0.096335389 0.12076035 0.010000001)
(0.09604343 0.12118409 0.010000001)
(0.095890537 0.12145881 0.010000001)
(0.095783144 0.12168548 0.010000001)
(0.095678568 0.12194671 0.010000001)
(0.095559418 0.12233538 0.010000001)
(0.095438227 0.12292962 0.010000001)
(0.095406257 0.12328105 0.010000001)
(0.095401086 0.12353808 0.010000001)
(0.095412716 0.12381153 0.010000001)
(0.095463738 0.12421874 0.010000001)
(0.095596775 0.12480976 0.010000001)
(0.095710985 0.12514108 0.010000001)
(0.09581437 0.12538411 0.010000001)
(0.095930375 0.12561628 0.010000001)
(0.096113861 0.12592432 0.010000001)
(0.096418805 0.12634836 0.010000001)
(0.096670553 0.1266309 0.010000001)
(0.096972734 0.126911 0.010000001)
(0.097430319 0.12725899 0.010000001)
(0.097791754 0.12747154 0.010000001)
(0.098232299 0.12767741 0.010000001)
(0.1216 0.13280806 0.010000001)
(0.111158 0.13054459 0.010000001)
(0.109342 0.13015094 -0.010000001)
(0.1216 0.13280806 -0.010000001)
(0.10779504 0.12981562 0.010000001)
(0.13297331 0.12398222 0.010000001)
(0.13296866 0.12406608 -0.010000001)
(0.13296472 0.12413753 0.010000001)
(0.13294198 0.12454831 0.010000001)
(0.13294198 0.12454831 -0.010000001)
(0.13283978 0.12511961 0.010000001)
(0.13282201 0.12521896 -0.010000001)
(0.1327198 0.12579025 0.010000001)
(0.1326098 0.12616181 0.010000001)
(0.13259067 0.12622644 -0.010000001)
(0.1327198 0.12579025 -0.010000001)
(0.13248067 0.126598 0.010000001)
(0.13229762 0.12704633 0.010000001)
(0.13226579 0.12712431 -0.010000001)
(0.13248067 0.126598 -0.010000001)
(0.13208275 0.12757264 0.010000001)
(0.13185135 0.12799779 0.010000001)
(0.1318111 0.12807173 -0.010000001)
(0.13208275 0.12757264 -0.010000001)
(0.13157968 0.12849687 0.010000001)
(0.1313777 0.12879524 0.010000001)
(0.13134257 0.12884712 -0.010000001)
(0.13157968 0.12849687 -0.010000001)
(0.13114057 0.12914549 0.010000001)
(0.13090765 0.12943423 0.010000001)
(0.13086715 0.12948444 -0.010000001)
(0.13114057 0.12914549 -0.010000001)
(0.13063423 0.12977317 0.010000001)
(0.13037694 0.13004181 0.010000001)
(0.13033219 0.13008854 -0.010000001)
(0.13063423 0.12977317 -0.010000001)
(0.13007489 0.13035718 0.010000001)
(0.12979518 0.13060336 0.010000001)
(0.12974654 0.13064617 -0.010000001)
(0.13007489 0.13035718 -0.010000001)
(0.12946683 0.13089235 0.010000001)
(0.12920703 0.13108659 0.010000001)
(0.12916185 0.13112037 -0.010000001)
(0.12946683 0.13089235 -0.010000001)
(0.12890205 0.13131459 0.010000001)
(0.12858082 0.13151662 0.010000001)
(0.12852496 0.13155174 -0.010000001)
(0.12890205 0.13131459 -0.010000001)
(0.12820375 0.13175377 0.010000001)
(0.1278702 0.13192533 0.010000001)
(0.12781219 0.13195516 -0.010000001)
(0.12820375 0.13175377 -0.010000001)
(0.12747864 0.13212673 0.010000001)
(0.12715703 0.13225979 0.010000001)
(0.12710111 0.13228293 -0.010000001)
(0.12747864 0.13212673 -0.010000001)
(0.12677951 0.13241598 0.010000001)
(0.12631693 0.1325576 0.010000001)
(0.12623648 0.13258223 -0.010000001)
(0.12677951 0.13241598 -0.010000001)
(0.12577391 0.13272385 0.010000001)
(0.12529808 0.13281353 0.010000001)
(0.12521534 0.13282911 -0.010000001)
(0.12577391 0.13272385 -0.010000001)
(0.12473951 0.13291879 0.010000001)
(0.12434564 0.13295259 0.010000001)
(0.12427714 0.13295847 -0.010000001)
(0.12473951 0.13291879 -0.010000001)
(0.12388327 0.13299227 0.010000001)
(0.1233126 0.13297799 0.010000001)
(0.12321335 0.1329755 -0.010000001)
(0.12388327 0.13299227 -0.010000001)
(0.12264267 0.13296124 0.010000001)
(0.12216304 0.13289078 0.010000001)
(0.12207963 0.13287853 -0.010000001)
(0.12264267 0.13296124 -0.010000001)
(0.12175447 0.13283075 0.010000001)
(0.12282646 0.13296583 0.010000001)
(0.12401012 0.13298137 0.010000001)
(0.12489276 0.13288991 0.010000001)
(0.12592287 0.13267824 0.010000001)
(0.12688309 0.13237314 0.010000001)
(0.12758607 0.13207148 0.010000001)
(0.12830721 0.13168871 0.010000001)
(0.12898572 0.13125204 0.010000001)
(0.12955691 0.13081308 0.010000001)
(0.13015775 0.13027066 0.010000001)
(0.13070925 0.12968019 0.010000001)
(0.13120563 0.12904939 0.010000001)
(0.13165422 0.12835994 0.010000001)
(0.13214171 0.12742825 0.010000001)
(0.1325161 0.12647833 0.010000001)
(0.13275272 0.12560627 0.010000001)
(-0.1481 -0.11911252 0.010000001)
(-0.14826818 -0.11915838 0.010000001)
(-0.14829743 -0.11916635 -0.010000001)
(-0.1481 -0.11911252 -0.010000001)
(-0.14832234 -0.11917315 0.010000001)
(-0.1484656 -0.11921222 0.010000001)
(-0.1484656 -0.11921222 -0.010000001)
(-0.14862874 -0.11927181 0.010000001)
(-0.14865711 -0.11928218 -0.010000001)
(-0.14882024 -0.11934178 0.010000001)
(-0.14902976 -0.11944259 0.010000001)
(-0.14906619 -0.11946013 -0.010000001)
(-0.14882024 -0.11934178 -0.010000001)
(-0.14927572 -0.11956093 0.010000001)
(-0.14943446 -0.11965818 0.010000001)
(-0.14946207 -0.11967508 -0.010000001)
(-0.14927572 -0.11956093 -0.010000001)
(-0.1496208 -0.11977232 0.010000001)
(-0.1498403 -0.11994333 0.010000001)
(-0.14987847 -0.11997307 -0.010000001)
(-0.1496208 -0.11977232 -0.010000001)
(-0.15009795 -0.12014407 0.010000001)
(-0.15022296 -0.12026558 0.010000001)
(-0.1502447 -0.12028672 -0.010000001)
(-0.15009795 -0.12014407 -0.010000001)
(-0.1503697 -0.12040823 0.010000001)
(-0.15048391 -0.12053967 0.010000001)
(-0.15050377 -0.12056252 -0.010000001)
(-0.1503697 -0.12040823 -0.010000001)
(-0.15061797 -0.12069397 0.010000001)
(-0.15076278 -0.12090009 0.010000001)
(-0.15078796 -0.12093594 -0.010000001)
(-0.15061797 -0.12069397 -0.010000001)
(-0.15093277 -0.12114207 0.010000001)
(-0.15100667 -0.12127256 0.010000001)
(-0.15101953 -0.12129525 -0.010000001)
(-0.15093277 -0.12114207 -0.010000001)
(-0.15109342 -0.12142574 0.010000001)
(-0.15114322 -0.12152842 0.010000001)
(-0.15115188 -0.12154628 -0.010000001)
(-0.15109342 -0.12142574 -0.010000001)
(-0.15120167 -0.12164897 0.010000001)
(-0.15124884 -0.12176234 0.010000001)
(-0.15125704 -0.12178206 -0.010000001)
(-0.15120167 -0.12164897 -0.010000001)
(-0.15130422 -0.12189543 0.010000001)
(-0.15135768 -0.12205464 0.010000001)
(-0.15136698 -0.12208232 -0.010000001)
(-0.15130422 -0.12189543 -0.010000001)
(-0.15142044 -0.12224152 0.010000001)
(-0.15148298 -0.12253298 0.010000001)
(-0.15149386 -0.12258366 -0.010000001)
(-0.15142044 -0.12224152 -0.010000001)
(-0.1515564 -0.12287512 0.010000001)
(-0.15157308 -0.12304433 0.010000001)
(-0.15157598 -0.12307376 -0.010000001)
(-0.1515564 -0.12287512 -0.010000001)
(-0.15159266 -0.12324297 0.010000001)
(-0.15159604 -0.12336121 0.010000001)
(-0.15159662 -0.12338176 -0.010000001)
(-0.15159266 -0.12324297 -0.010000001)
(-0.1516 -0.1235 0.010000001)
(-0.15159662 -0.12361824 0.010000001)
(-0.15159604 -0.12363879 -0.010000001)
(-0.1516 -0.1235 -0.010000001)
(-0.15159266 -0.12375703 0.010000001)
(-0.15157598 -0.12392624 0.010000001)
(-0.15157308 -0.12395567 -0.010000001)
(-0.15159266 -0.12375703 -0.010000001)
(-0.1515564 -0.12412488 0.010000001)
(-0.15149386 -0.12441634 0.010000001)
(-0.15148298 -0.12446702 -0.010000001)
(-0.1515564 -0.12412488 -0.010000001)
(-0.15142044 -0.12475848 0.010000001)
(-0.15136698 -0.12491768 0.010000001)
(-0.15135768 -0.12494536 -0.010000001)
(-0.15142044 -0.12475848 -0.010000001)
(-0.15130422 -0.12510456 0.010000001)
(-0.15125704 -0.12521794 0.010000001)
(-0.15124884 -0.12523766 -0.010000001)
(-0.15130422 -0.12510456 -0.010000001)
(-0.15120167 -0.12535103 0.010000001)
(-0.15115188 -0.12545371 0.010000001)
(-0.15114322 -0.12547158 -0.010000001)
(-0.15120167 -0.12535103 -0.010000001)
(-0.15109342 -0.12557426 0.010000001)
(-0.15101953 -0.12570475 0.010000001)
(-0.15100667 -0.12572744 -0.010000001)
(-0.15109342 -0.12557426 -0.010000001)
(-0.15093277 -0.12585793 0.010000001)
(-0.15078796 -0.12606406 0.010000001)
(-0.15076278 -0.12609991 -0.010000001)
(-0.15093277 -0.12585793 -0.010000001)
(-0.15061797 -0.12630603 0.010000001)
(-0.15050377 -0.12643747 0.010000001)
(-0.15048391 -0.12646033 -0.010000001)
(-0.15061797 -0.12630603 -0.010000001)
(-0.1503697 -0.12659177 0.010000001)
(-0.1502447 -0.12671329 0.010000001)
(-0.15022296 -0.12673442 -0.010000001)
(-0.1503697 -0.12659177 -0.010000001)
(-0.15009795 -0.12685592 0.010000001)
(-0.14987847 -0.12702693 0.010000001)
(-0.1498403 -0.12705667 -0.010000001)
(-0.15009795 -0.12685592 -0.010000001)
(-0.1496208 -0.12722768 0.010000001)
(-0.14946207 -0.12732491 0.010000001)
(-0.14943446 -0.12734182 -0.010000001)
(-0.1496208 -0.12722768 -0.010000001)
(-0.14927572 -0.12743907 0.010000001)
(-0.14906619 -0.12753987 0.010000001)
(-0.14902976 -0.12755741 -0.010000001)
(-0.14927572 -0.12743907 -0.010000001)
(-0.14882024 -0.12765822 0.010000001)
(-0.14865711 -0.12771782 0.010000001)
(-0.14862874 -0.12772818 -0.010000001)
(-0.14882024 -0.12765822 -0.010000001)
(-0.1484656 -0.12778778 0.010000001)
(-0.14829743 -0.12783365 0.010000001)
(-0.14826818 -0.12784162 -0.010000001)
(-0.1484656 -0.12778778 -0.010000001)
(-0.14815417 -0.12787271 0.010000001)
(-0.1481 -0.12788749 -0.010000001)
(-0.1481 -0.12788749 0.010000001)
(-0.14851815 -0.12776859 0.010000001)
(-0.14888771 -0.12762575 0.010000001)
(-0.14932685 -0.12740774 0.010000001)
(-0.14969149 -0.1271726 0.010000001)
(-0.15013821 -0.12681679 0.010000001)
(-0.15040648 -0.12654944 0.010000001)
(-0.15066461 -0.12623964 0.010000001)
(-0.15095657 -0.12581591 0.010000001)
(-0.15110946 -0.1255412 0.010000001)
(-0.15121686 -0.12531452 0.010000001)
(-0.15132143 -0.12505329 0.010000001)
(-0.15144059 -0.12466461 0.010000001)
(-0.15156177 -0.12407038 0.010000001)
(-0.15159374 -0.12371895 0.010000001)
(-0.15159892 -0.12346192 0.010000001)
(-0.15158728 -0.12318847 0.010000001)
(-0.15153626 -0.12278125 0.010000001)
(-0.15140322 -0.12219024 0.010000001)
(-0.15128902 -0.12185892 0.010000001)
(-0.15118563 -0.12161589 0.010000001)
(-0.15106963 -0.12138371 0.010000001)
(-0.15088613 -0.12107568 0.010000001)
(-0.1505812 -0.12065163 0.010000001)
(-0.15032944 -0.12036909 0.010000001)
(-0.15002726 -0.12008899 0.010000001)
(-0.14956968 -0.11974101 0.010000001)
(-0.14920825 -0.11952847 0.010000001)
(-0.14876769 -0.11932258 0.010000001)
(-0.12540001 -0.13280806 0.010000001)
(-0.12492037 -0.13287853 0.010000001)
(-0.12483695 -0.13289078 -0.010000001)
(-0.12540001 -0.13280806 -0.010000001)
(-0.1247659 -0.13290122 0.010000001)
(-0.12435732 -0.13296124 0.010000001)
(-0.12435732 -0.13296124 -0.010000001)
(-0.12378665 -0.1329755 0.010000001)
(-0.1236874 -0.13297799 -0.010000001)
(-0.12311673 -0.13299227 0.010000001)
(-0.12272286 -0.13295847 0.010000001)
(-0.12265436 -0.13295259 -0.010000001)
(-0.12311673 -0.13299227 -0.010000001)
(-0.12226049 -0.13291879 0.010000001)
(-0.12178467 -0.13282911 0.010000001)
(-0.12170192 -0.13281353 -0.010000001)
(-0.12226049 -0.13291879 -0.010000001)
(-0.12122609 -0.13272385 0.010000001)
(-0.12076352 -0.13258223 0.010000001)
(-0.12068307 -0.1325576 -0.010000001)
(-0.12122609 -0.13272385 -0.010000001)
(-0.12022049 -0.13241598 0.010000001)
(-0.11989889 -0.13228293 0.010000001)
(-0.11984296 -0.13225979 -0.010000001)
(-0.12022049 -0.13241598 -0.010000001)
(-0.11952136 -0.13212673 0.010000001)
(-0.11918781 -0.13195516 0.010000001)
(-0.1191298 -0.13192533 -0.010000001)
(-0.11952136 -0.13212673 -0.010000001)
(-0.11879625 -0.13175377 0.010000001)
(-0.11847503 -0.13155174 0.010000001)
(-0.11841917 -0.13151662 -0.010000001)
(-0.11879625 -0.13175377 -0.010000001)
(-0.11809795 -0.13131459 0.010000001)
(-0.11783815 -0.13112037 0.010000001)
(-0.11779297 -0.13108659 -0.010000001)
(-0.11809795 -0.13131459 -0.010000001)
(-0.11753317 -0.13089235 0.010000001)
(-0.11725346 -0.13064617 0.010000001)
(-0.11720482 -0.13060336 -0.010000001)
(-0.11753317 -0.13089235 -0.010000001)
(-0.11692511 -0.13035718 0.010000001)
(-0.11666781 -0.13008854 0.010000001)
(-0.11662307 -0.13004181 -0.010000001)
(-0.11692511 -0.13035718 -0.010000001)
(-0.11636577 -0.12977317 0.010000001)
(-0.11613285 -0.12948444 0.010000001)
(-0.11609234 -0.12943423 -0.010000001)
(-0.11636577 -0.12977317 -0.010000001)
(-0.11585942 -0.12914549 0.010000001)
(-0.11565743 -0.12884712 0.010000001)
(-0.1156223 -0.12879524 -0.010000001)
(-0.11585942 -0.12914549 -0.010000001)
(-0.11542031 -0.12849687 0.010000001)
(-0.1151889 -0.12807173 0.010000001)
(-0.11514866 -0.12799779 -0.010000001)
(-0.11542031 -0.12849687 -0.010000001)
(-0.11491725 -0.12757264 0.010000001)
(-0.11473421 -0.12712431 0.010000001)
(-0.11470237 -0.12704633 -0.010000001)
(-0.11491725 -0.12757264 -0.010000001)
(-0.11451933 -0.126598 0.010000001)
(-0.11440933 -0.12622644 0.010000001)
(-0.1143902 -0.12616181 -0.010000001)
(-0.11451933 -0.126598 -0.010000001)
(-0.1142802 -0.12579025 0.010000001)
(-0.11417799 -0.12521896 0.010000001)
(-0.11416022 -0.12511961 -0.010000001)
(-0.1142802 -0.12579025 -0.010000001)
(-0.11405802 -0.12454831 0.010000001)
(-0.11403133 -0.12406608 0.010000001)
(-0.11402669 -0.12398222 -0.010000001)
(-0.11405802 -0.12454831 -0.010000001)
(-0.1140086 -0.1236553 0.010000001)
(-0.114 -0.1235 -0.010000001)
(-0.114 -0.1235 0.010000001)
(-0.11409093 -0.1247323 0.010000001)
(-0.11431563 -0.12590992 0.010000001)
(-0.11457828 -0.12674239 0.010000001)
(-0.11499178 -0.12770957 0.010000001)
(-0.11548536 -0.12859295 0.010000001)
(-0.11593443 -0.12923849 0.010000001)
(-0.11644863 -0.12985969 0.010000001)
(-0.11701519 -0.13043647 0.010000001)
(-0.11761684 -0.13095491 0.010000001)
(-0.1182014 -0.13137966 0.010000001)
(-0.11890367 -0.13180903 0.010000001)
(-0.11962494 -0.13216957 0.010000001)
(-0.12036947 -0.13246159 0.010000001)
(-0.12137934 -0.13275273 0.010000001)
(-0.12238734 -0.13292968 0.010000001)
(-0.12330052 -0.13298766 0.010000001)
(-0.137658 -0.13015094 0.010000001)
(-0.135842 -0.13054459 -0.010000001)
(-0.13429503 -0.13087992 0.010000001)
(-0.12540001 -0.11419194 0.010000001)
(-0.135842 -0.11645541 0.010000001)
(-0.137658 -0.11684905 -0.010000001)
(-0.12540001 -0.11419194 -0.010000001)
(-0.13920496 -0.11718438 0.010000001)
(-0.11402669 -0.12301778 0.010000001)
(-0.11403133 -0.12293392 -0.010000001)
(-0.11403529 -0.12286247 0.010000001)
(-0.11405802 -0.12245169 0.010000001)
(-0.11405802 -0.12245169 -0.010000001)
(-0.11416022 -0.1218804 0.010000001)
(-0.11417799 -0.12178104 -0.010000001)
(-0.1142802 -0.12120974 0.010000001)
(-0.1143902 -0.12083818 0.010000001)
(-0.11440933 -0.12077356 -0.010000001)
(-0.1142802 -0.12120974 -0.010000001)
(-0.11451933 -0.120402 0.010000001)
(-0.11470237 -0.11995367 0.010000001)
(-0.11473421 -0.1198757 -0.010000001)
(-0.11451933 -0.120402 -0.010000001)
(-0.11491725 -0.11942736 0.010000001)
(-0.11514866 -0.11900222 0.010000001)
(-0.1151889 -0.11892828 -0.010000001)
(-0.11491725 -0.11942736 -0.010000001)
(-0.11542031 -0.11850314 0.010000001)
(-0.1156223 -0.11820477 0.010000001)
(-0.11565743 -0.11815288 -0.010000001)
(-0.11542031 -0.11850314 -0.010000001)
(-0.11585942 -0.11785451 0.010000001)
(-0.11609234 -0.11756577 0.010000001)
(-0.11613285 -0.11751556 -0.010000001)
(-0.11585942 -0.11785451 -0.010000001)
(-0.11636577 -0.11722682 0.010000001)
(-0.11662307 -0.11695819 0.010000001)
(-0.11666781 -0.11691146 -0.010000001)
(-0.11636577 -0.11722682 -0.010000001)
(-0.11692511 -0.11664283 0.010000001)
(-0.11720482 -0.11639664 0.010000001)
(-0.11725346 -0.11635382 -0.010000001)
(-0.11692511 -0.11664283 -0.010000001)
(-0.11753317 -0.11610764 0.010000001)
(-0.11779297 -0.11591341 0.010000001)
(-0.11783815 -0.11587963 -0.010000001)
(-0.11753317 -0.11610764 -0.010000001)
(-0.11809795 -0.1156854 0.010000001)
(-0.11841917 -0.11548338 0.010000001)
(-0.11847503 -0.11544825 -0.010000001)
(-0.11809795 -0.1156854 -0.010000001)
(-0.11879625 -0.11524623 0.010000001)
(-0.1191298 -0.11507467 0.010000001)
(-0.11918781 -0.11504483 -0.010000001)
(-0.11879625 -0.11524623 -0.010000001)
(-0.11952136 -0.11487328 0.010000001)
(-0.11984296 -0.11474022 0.010000001)
(-0.11989889 -0.11471707 -0.010000001)
(-0.11952136 -0.11487328 -0.010000001)
(-0.12022049 -0.11458401 0.010000001)
(-0.12068307 -0.1144424 0.010000001)
(-0.12076352 -0.11441777 -0.010000001)
(-0.12022049 -0.11458401 -0.010000001)
(-0.12122609 -0.11427615 0.010000001)
(-0.12170192 -0.11418648 0.010000001)
(-0.12178467 -0.11417089 -0.010000001)
(-0.12122609 -0.11427615 -0.010000001)
(-0.12226049 -0.11408121 0.010000001)
(-0.12265436 -0.11404741 0.010000001)
(-0.12272286 -0.11404153 -0.010000001)
(-0.12226049 -0.11408121 -0.010000001)
(-0.12311673 -0.11400773 0.010000001)
(-0.1236874 -0.11402201 0.010000001)
(-0.12378665 -0.11402449 -0.010000001)
(-0.12311673 -0.11400773 -0.010000001)
(-0.12435732 -0.11403877 0.010000001)
(-0.12483695 -0.11410923 0.010000001)
(-0.12492037 -0.11412147 -0.010000001)
(-0.12435732 -0.11403877 -0.010000001)
(-0.12524553 -0.11416925 0.010000001)
(-0.12417353 -0.11403417 0.010000001)
(-0.12298988 -0.11401862 0.010000001)
(-0.12210725 -0.11411009 0.010000001)
(-0.12107712 -0.11432176 0.010000001)
(-0.12011692 -0.11462687 0.010000001)
(-0.11941393 -0.11492853 0.010000001)
(-0.1186928 -0.11531129 0.010000001)
(-0.11801428 -0.11574796 0.010000001)
(-0.11744308 -0.11618693 0.010000001)
(-0.11684225 -0.11672934 0.010000001)
(-0.11629076 -0.11731981 0.010000001)
(-0.11579437 -0.1179506 0.010000001)
(-0.11534578 -0.11864006 0.010000001)
(-0.1148583 -0.11957175 0.010000001)
(-0.1144839 -0.12052167 0.010000001)
(-0.11424728 -0.12139373 0.010000001)
(-0.1481 0.12788749 0.010000001)
(-0.14826818 0.12784162 0.010000001)
(-0.14829743 0.12783365 -0.010000001)
(-0.1481 0.12788749 -0.010000001)
(-0.14832234 0.12782685 0.010000001)
(-0.1484656 0.12778778 0.010000001)
(-0.1484656 0.12778778 -0.010000001)
(-0.14862874 0.12772818 0.010000001)
(-0.14865711 0.12771782 -0.010000001)
(-0.14882024 0.12765822 0.010000001)
(-0.14902976 0.12755741 0.010000001)
(-0.14906619 0.12753987 -0.010000001)
(-0.14882024 0.12765822 -0.010000001)
(-0.14927572 0.12743907 0.010000001)
(-0.14943446 0.12734182 0.010000001)
(-0.14946207 0.12732491 -0.010000001)
(-0.14927572 0.12743907 -0.010000001)
(-0.1496208 0.12722768 0.010000001)
(-0.1498403 0.12705667 0.010000001)
(-0.14987847 0.12702693 -0.010000001)
(-0.1496208 0.12722768 -0.010000001)
(-0.15009795 0.12685592 0.010000001)
(-0.15022296 0.12673442 0.010000001)
(-0.1502447 0.12671329 -0.010000001)
(-0.15009795 0.12685592 -0.010000001)
(-0.1503697 0.12659177 0.010000001)
(-0.15048391 0.12646033 0.010000001)
(-0.15050377 0.12643747 -0.010000001)
(-0.1503697 0.12659177 -0.010000001)
(-0.15061797 0.12630603 0.010000001)
(-0.15076278 0.12609991 0.010000001)
(-0.15078796 0.12606406 -0.010000001)
(-0.15061797 0.12630603 -0.010000001)
(-0.15093277 0.12585793 0.010000001)
(-0.15100667 0.12572744 0.010000001)
(-0.15101953 0.12570475 -0.010000001)
(-0.15093277 0.12585793 -0.010000001)
(-0.15109342 0.12557426 0.010000001)
(-0.15114322 0.12547158 0.010000001)
(-0.15115188 0.12545371 -0.010000001)
(-0.15109342 0.12557426 -0.010000001)
(-0.15120167 0.12535103 0.010000001)
(-0.15124884 0.12523766 0.010000001)
(-0.15125704 0.12521794 -0.010000001)
(-0.15120167 0.12535103 -0.010000001)
(-0.15130422 0.12510456 0.010000001)
(-0.15135768 0.12494536 0.010000001)
(-0.15136698 0.12491768 -0.010000001)
(-0.15130422 0.12510456 -0.010000001)
(-0.15142044 0.12475848 0.010000001)
(-0.15148298 0.12446702 0.010000001)
(-0.15149386 0.12441634 -0.010000001)
(-0.15142044 0.12475848 -0.010000001)
(-0.1515564 0.12412488 0.010000001)
(-0.15157308 0.12395567 0.010000001)
(-0.15157598 0.12392624 -0.010000001)
(-0.1515564 0.12412488 -0.010000001)
(-0.15159266 0.12375703 0.010000001)
(-0.15159604 0.12363879 0.010000001)
(-0.15159662 0.12361824 -0.010000001)
(-0.15159266 0.12375703 -0.010000001)
(-0.1516 0.1235 0.010000001)
(-0.15159662 0.12338176 0.010000001)
(-0.15159604 0.12336121 -0.010000001)
(-0.1516 0.1235 -0.010000001)
(-0.15159266 0.12324297 0.010000001)
(-0.15157598 0.12307376 0.010000001)
(-0.15157308 0.12304433 -0.010000001)
(-0.15159266 0.12324297 -0.010000001)
(-0.1515564 0.12287512 0.010000001)
(-0.15149386 0.12258366 0.010000001)
(-0.15148298 0.12253298 -0.010000001)
(-0.1515564 0.12287512 -0.010000001)
(-0.15142044 0.12224152 0.010000001)
(-0.15136698 0.12208232 0.010000001)
(-0.15135768 0.12205464 -0.010000001)
(-0.15142044 0.12224152 -0.010000001)
(-0.15130422 0.12189543 0.010000001)
(-0.15125704 0.12178206 0.010000001)
(-0.15124884 0.12176234 -0.010000001)
(-0.15130422 0.12189543 -0.010000001)
(-0.15120167 0.12164897 0.010000001)
(-0.15115188 0.12154628 0.010000001)
(-0.15114322 0.12152842 -0.010000001)
(-0.15120167 0.12164897 -0.010000001)
(-0.15109342 0.12142574 0.010000001)
(-0.15101953 0.12129525 0.010000001)
(-0.15100667 0.12127256 -0.010000001)
(-0.15109342 0.12142574 -0.010000001)
(-0.15093277 0.12114207 0.010000001)
(-0.15078796 0.12093594 0.010000001)
(-0.15076278 0.12090009 -0.010000001)
(-0.15093277 0.12114207 -0.010000001)
(-0.15061797 0.12069397 0.010000001)
(-0.15050377 0.12056252 0.010000001)
(-0.15048391 0.12053967 -0.010000001)
(-0.15061797 0.12069397 -0.010000001)
(-0.1503697 0.12040823 0.010000001)
(-0.1502447 0.12028672 0.010000001)
(-0.15022296 0.12026558 -0.010000001)
(-0.1503697 0.12040823 -0.010000001)
(-0.15009795 0.12014407 0.010000001)
(-0.14987847 0.11997307 0.010000001)