/*--------------------------------*- C++ -*----------------------------------*\
| =========                 |                                                 |
| \\      /  F ield         | OpenFOAM: The Open Source CFD Toolbox           |
|  \\    /   O peration     | Version:  plus                                  |
|   \\  /    A nd           | Web:      www.OpenFOAM.com                      |
|    \\/     M anipulation  |                                                 |
\*---------------------------------------------------------------------------*/
FoamFile
{
    version     2.0;
    format      ascii;
    class       dictionary;
    object      blockMeshDict;
}
// * * * * * * * * * * * * * * * * * * * * * * * * * * * * * * * * * * * * * //

convertToMeters 1;

vertices
(
   (-1.75 -1.26 -0.005)
   ( 3.25 -1.26 -0.005)
   ( 3.25 1.24 -0.005)
   (-1.75 1.24 -0.005)
   (-1.75 -1.26 0.005)
   ( 3.25 -1.26 0.005)
   ( 3.25 1.24  0.005)
   ( -1.75 1.24 0.005)

);

blocks
(
    hex (0 1 2 3 4 5 6 7) (250 125 10) simpleGrading (1 1 1)


);

edges
(
);

boundary
(
    topAndBottom
    {
        type wall;
        faces
        (
            (3 7 6 2)
            (1 5 4 0)
        );
    }

    inlet
    {
        type wall;
        faces
        (
            (0 4 7 3)
        );
    }

    outlet
    {
        type wall;
        faces
        (
            (2 6 5 1)
        );
    }

    symFront
    {
        type wall; //symmetryPlane;
        faces
        (
            (4 5 6 7)
        );
    }

    symBack
    {
        type wall; //symmetryPlane;
        faces
        (
            (0 3 2 1)
        );
    }
);

mergePatchPairs
(
);

// ************************************************************************* //
