/*--------------------------------*- C++ -*----------------------------------*\
| =========                 |                                                 |
| \\      /  F ield         | OpenFOAM: The Open Source CFD Toolbox           |
|  \\    /   O peration     | Version:  1.5                                   |
|   \\  /    A nd           | Web:      http://www.OpenFOAM.org               |
|    \\/     M anipulation  |                                                 |
\*---------------------------------------------------------------------------*/
FoamFile
{
    version     2.0;
    format      ascii;
    class       dictionary;
    object      blockMeshDict;
}

// * * * * * * * * * * * * * * * * * * * * * * * * * * * * * * * * * * * * * //

convertToMeters 1;

vertices
(


// vertices for the moving zone 
    ( -0.19  -0.16  -0.005)
    (  0.17  -0.16  -0.005)
    (  0.17   0.16  -0.005)
    ( -0.19   0.16  -0.005)
    ( -0.19  -0.16  0.005)
    (  0.17  -0.16  0.005)
    (  0.17   0.16  0.005)
    ( -0.19   0.16  0.005)
);

blocks
(

// 2D case
    hex (0 1 2 3 4 5 6 7) movingZone (18 16 1) simpleGrading (1 1 1)

// 3D case 
    //hex (0 1 2 3 4 5 6 7) ( 250 125 3 ) simpleGrading (1 1 1)
    //hex (8 9 10 11 12 13 14 15) movingZone (18 16 3) simpleGrading (1 1 1)
);

edges
(
);

boundary
(

    // Populated by subsetMesh
    hole
    {
        type wall;
        faces ();
    }

    frontAndBack
    {
        type empty;
        faces
        (
            (0 3 2 1)
            (4 7 6 5)
        );
    }

    free2
    {
        type wall;
        faces
        (
              (0 4 7 3)
              (2 6 5 1)
              (3 7 6 2)
              (1 5 4 0)
        );
    }

);


// ************************************************************************* //
